test/data/IEEE13NodecktAssets_Power_elem_kVA.txt

CIRCUIT ELEMENT POWER FLOW

(Power Flow into element from indicated Bus)

Power Delivery Elements

  Bus     Phase     kW     +j   kvar         kVA         PF

ELEMENT = "Vsource.SOURCE"
SOURCEBUS     1     -1038.3 +j   -809.7     1316.7       0.7886
SOURCEBUS     2     -1246.3 +j   -620.1     1392.0       0.8953
SOURCEBUS     3     -1306.5 +j   -895.0     1583.6       0.8250
   TERMINAL TOTAL . -3591.0 +j  -2324.9     4277.9       0.8394
SOURCEBUS     0         0.0 +j      0.0        0.0       1.0000
SOURCEBUS     0         0.0 +j      0.0        0.0       1.0000
SOURCEBUS     0         0.0 +j      0.0        0.0       1.0000
   TERMINAL TOTAL .     0.0 +j      0.0        0.0       1.0000

ELEMENT = "Transformer.SUB"
SOURCEBUS     1      1038.3 +j    809.7     1316.7       0.7886
SOURCEBUS     2      1246.3 +j    620.1     1392.0       0.8953
SOURCEBUS     3      1306.5 +j    895.0     1583.6       0.8250
SOURCEBUS     0         0.0 +j      0.0        0.0       1.0000
   TERMINAL TOTAL .  3591.0 +j   2324.9     4277.9       0.8394
650           1     -1255.2 +j   -875.9     1530.6       0.8201
650           2      -987.2 +j   -588.7     1149.4       0.8589
650           3     -1348.6 +j   -860.0     1599.5       0.8431
650           0         0.0 +j      0.0        0.0       1.0000
   TERMINAL TOTAL . -3591.0 +j  -2324.6     4277.7       0.8395

ELEMENT = "Transformer.XFM1"
633           1       163.6 +j    116.5      200.8       0.8145
633           2       122.5 +j     94.6      154.8       0.7915
633           3       122.5 +j     94.6      154.8       0.7915
633           0         0.0 +j      0.0        0.0       1.0000
   TERMINAL TOTAL .   408.6 +j    305.7      510.3       0.8007
634           1      -160.0 +j   -110.0      194.2       0.8240
634           2      -120.0 +j    -90.0      150.0       0.8000
634           3      -120.0 +j    -90.0      150.0       0.8000
634           0         0.0 +j      0.0        0.0       1.0000
   TERMINAL TOTAL .  -400.0 +j   -290.0      494.1       0.8096

ELEMENT = "Transformer.REG1"
650           1      1255.2 +j    875.9     1530.6       0.8201
650           0         0.0 +j      0.0        0.0       1.0000
   TERMINAL TOTAL .  1255.2 +j    875.9     1530.6       0.8201
RG60          1     -1255.0 +j   -875.7     1530.4       0.8201
RG60          0         0.0 +j      0.0        0.0       1.0000
   TERMINAL TOTAL . -1255.0 +j   -875.7     1530.4       0.8201

ELEMENT = "Transformer.REG2"
650           2       987.2 +j    588.7     1149.4       0.8589
650           0         0.0 +j      0.0        0.0       1.0000
   TERMINAL TOTAL .   987.2 +j    588.7     1149.4       0.8589
RG60          2      -987.1 +j   -588.6     1149.3       0.8589
RG60          0         0.0 +j      0.0        0.0       1.0000
   TERMINAL TOTAL .  -987.1 +j   -588.6     1149.3       0.8589

ELEMENT = "Transformer.REG3"
650           3      1348.6 +j    860.0     1599.5       0.8431
650           0         0.0 +j      0.0        0.0       1.0000
   TERMINAL TOTAL .  1348.6 +j    860.0     1599.5       0.8431
RG60          3     -1348.5 +j   -859.9     1599.3       0.8432
RG60          0         0.0 +j      0.0        0.0       1.0000
   TERMINAL TOTAL . -1348.5 +j   -859.9     1599.3       0.8432

ELEMENT = "Line.650632"
RG60          1      1255.0 +j    875.7     1530.4       0.8201
RG60          2       987.1 +j    588.6     1149.3       0.8589
RG60          3      1348.5 +j    859.9     1599.3       0.8432
   TERMINAL TOTAL .  3590.6 +j   2324.2     4277.2       0.8395
632           1     -1229.4 +j   -795.1     1464.2       0.8397
632           2      -979.4 +j   -560.9     1128.7       0.8678
632           3     -1313.2 +j   -781.2     1528.0       0.8594
   TERMINAL TOTAL . -3522.0 +j  -2137.3     4119.8       0.8549

ELEMENT = "Line.632670"
632           1      1065.4 +j    678.2     1263.0       0.8436
632           2       524.4 +j    338.7      624.2       0.8400
632           3      1109.6 +j    548.7     1237.9       0.8964
   TERMINAL TOTAL .  2699.4 +j   1565.6     3120.6       0.8650
670           1     -1061.3 +j   -656.3     1247.8       0.8505
670           2      -524.2 +j   -337.7      623.6       0.8407
670           3     -1099.3 +j   -531.2     1220.9       0.9004
   TERMINAL TOTAL . -2684.8 +j  -1525.2     3087.8       0.8695

ELEMENT = "Line.670671"
670           1      1044.3 +j    646.3     1228.1       0.8503
670           2       458.2 +j    299.7      547.5       0.8369
670           3       982.3 +j    463.2     1086.0       0.9045
   TERMINAL TOTAL .  2484.8 +j   1409.2     2856.6       0.8699
671           1     -1035.1 +j   -602.5     1197.7       0.8643
671           2      -459.1 +j   -298.5      547.6       0.8384
671           3      -965.0 +j   -437.2     1059.4       0.9109
   TERMINAL TOTAL . -2459.2 +j  -1338.1     2799.7       0.8784

ELEMENT = "Line.671680"
671           1        -0.0 +j     -0.0        0.0       0.1426
671           2         0.0 +j     -0.0        0.0      -0.0478
671           3         0.0 +j     -0.0        0.0      -0.0878
   TERMINAL TOTAL .     0.0 +j     -0.0        0.0      -0.0000
680           1         0.0 +j      0.0        0.0       0.0752
680           2        -0.0 +j     -0.0        0.0       0.9057
680           3         0.0 +j      0.0        0.0       1.0000
   TERMINAL TOTAL .    -0.0 +j     -0.0        0.0       0.9839

ELEMENT = "Line.632633"
632           1       164.0 +j    117.0      201.4       0.8141
632           2       122.7 +j     94.8      155.0       0.7913
632           3       122.8 +j     94.8      155.1       0.7914
   TERMINAL TOTAL .   409.4 +j    306.6      511.5       0.8005
633           1      -163.6 +j   -116.5      200.8       0.8145
633           2      -122.5 +j    -94.6      154.8       0.7915
633           3      -122.5 +j    -94.6      154.8       0.7915
   TERMINAL TOTAL .  -408.6 +j   -305.7      510.3       0.8007

ELEMENT = "Line.632645"
632           3        80.8 +j    137.7      159.6       0.5063
632           2       332.4 +j    127.5      356.0       0.9337
   TERMINAL TOTAL .   413.2 +j    265.1      490.9       0.8416
645           3       -80.6 +j   -137.5      159.4       0.5057
645           2      -329.8 +j   -125.6      353.0       0.9345
   TERMINAL TOTAL .  -410.4 +j   -263.1      487.5       0.8419

ELEMENT = "Line.645646"
645           3        80.6 +j    137.5      159.4       0.5057
645           2       159.8 +j      0.6      159.8       1.0000
   TERMINAL TOTAL .   240.4 +j    138.1      277.3       0.8671
646           3       -80.3 +j   -137.3      159.0       0.5050
646           2      -159.6 +j     -0.4      159.6       1.0000
   TERMINAL TOTAL .  -239.9 +j   -137.7      276.6       0.8673

ELEMENT = "Line.692675"
692           1       488.1 +j    192.5      524.7       0.9303
692           2        67.8 +j     60.0       90.5       0.7494
692           3       291.4 +j    212.1      360.4       0.8085
   TERMINAL TOTAL .   847.3 +j    464.5      966.3       0.8769
675           1      -485.0 +j   -190.0      520.9       0.9311
675           2       -68.0 +j    -60.0       90.7       0.7498
675           3      -290.0 +j   -212.0      359.2       0.8073
   TERMINAL TOTAL .  -843.0 +j   -462.0      961.2       0.8769

ELEMENT = "Line.671684"
671           1       122.1 +j     81.8      147.0       0.8306
671           3       167.2 +j    -17.1      168.0      -0.9948
   TERMINAL TOTAL .   289.2 +j     64.7      296.4       0.9759
684           1      -121.9 +j    -81.7      146.7       0.8307
684           3      -166.8 +j     17.4      167.7      -0.9946
   TERMINAL TOTAL .  -288.7 +j    -64.3      295.7       0.9761

ELEMENT = "Line.684611"
684           3       166.8 +j    -17.4      167.7      -0.9946
   TERMINAL TOTAL .   166.8 +j    -17.4      167.7      -0.9946
611           3      -166.4 +j     17.7      167.3      -0.9944
   TERMINAL TOTAL .  -166.4 +j     17.7      167.3      -0.9944

ELEMENT = "Line.684652"
684           1       121.9 +j     81.7      146.7       0.8307
   TERMINAL TOTAL .   121.9 +j     81.7      146.7       0.8307
652           1      -121.1 +j    -81.4      145.9       0.8300
   TERMINAL TOTAL .  -121.1 +j    -81.4      145.9       0.8300

ELEMENT = "Line.671692"
671           1       529.7 +j    314.1      615.9       0.8601
671           2        67.8 +j     60.0       90.5       0.7494
671           3       417.4 +j    239.4      481.1       0.8675
   TERMINAL TOTAL .  1015.0 +j    613.5     1185.9       0.8558
692           1      -529.7 +j   -314.1      615.9       0.8601
692           2       -67.8 +j    -60.0       90.5       0.7494
692           3      -417.4 +j   -239.4      481.1       0.8675
   TERMINAL TOTAL . -1015.0 +j   -613.5     1185.9       0.8558

= = = = = = = = = = = = = = = = = = =  = = = = = = = = = = =  = =

Power Conversion Elements

  Bus     Phase     kW   +j  kvar         kVA         PF

ELEMENT = "Load.671"
671           1     383.3 +j  206.5      435.4       0.8804
671           2     391.2 +j  238.5      458.2       0.8538
671           3     380.5 +j  214.9      437.0       0.8707
  TERMINAL TOTAL  .  1155.0 +j    660.0     1330.3       0.8682

ELEMENT = "Load.634A"
634           1     160.0 +j  110.0      194.2       0.8241
634           0       0.0 +j    0.0        0.0       1.0000
  TERMINAL TOTAL  .   160.0 +j    110.0      194.2       0.8241

ELEMENT = "Load.634B"
634           2     120.0 +j   90.0      150.0       0.8000
634           0       0.0 +j    0.0        0.0       1.0000
  TERMINAL TOTAL  .   120.0 +j     90.0      150.0       0.8000

ELEMENT = "Load.634C"
634           3     120.0 +j   90.0      150.0       0.8000
634           0       0.0 +j    0.0        0.0       1.0000
  TERMINAL TOTAL  .   120.0 +j     90.0      150.0       0.8000

ELEMENT = "Load.645"
645           2     170.0 +j  125.0      211.0       0.8056
645           0       0.0 +j    0.0        0.0       1.0000
  TERMINAL TOTAL  .   170.0 +j    125.0      211.0       0.8056

ELEMENT = "Load.646"
646           2     159.6 +j    0.4      159.6       1.0000
646           3      80.3 +j  137.3      159.0       0.5050
  TERMINAL TOTAL  .   239.9 +j    137.7      276.6       0.8673

ELEMENT = "Load.692"
692           3     126.0 +j   27.3      128.9       0.9773
692           1      41.7 +j  121.6      128.6       0.3241
  TERMINAL TOTAL  .   167.7 +j    148.9      224.3       0.7477

ELEMENT = "Load.675A"
675           1     485.0 +j  190.0      520.9       0.9311
675           0       0.0 +j    0.0        0.0       1.0000
  TERMINAL TOTAL  .   485.0 +j    190.0      520.9       0.9311

ELEMENT = "Load.675B"
675           2      68.0 +j   60.0       90.7       0.7498
675           0       0.0 +j    0.0        0.0       1.0000
  TERMINAL TOTAL  .    68.0 +j     60.0       90.7       0.7498

ELEMENT = "Load.675C"
675           3     290.0 +j  212.0      359.2       0.8073
675           0       0.0 +j    0.0        0.0       1.0000
  TERMINAL TOTAL  .   290.0 +j    212.0      359.2       0.8073

ELEMENT = "Load.611"
611           3     166.4 +j   78.3      183.9       0.9048
611           0       0.0 +j    0.0        0.0       1.0000
  TERMINAL TOTAL  .   166.4 +j     78.3      183.9       0.9048

ELEMENT = "Load.652"
652           1     121.1 +j   81.4      145.9       0.8301
652           0       0.0 +j    0.0        0.0       1.0000
  TERMINAL TOTAL  .   121.1 +j     81.4      145.9       0.8301

ELEMENT = "Load.670A"
670           1      17.0 +j   10.0       19.7       0.8620
670           0       0.0 +j    0.0        0.0       1.0000
  TERMINAL TOTAL  .    17.0 +j     10.0       19.7       0.8620

ELEMENT = "Load.670B"
670           2      66.0 +j   38.0       76.2       0.8666
670           0       0.0 +j    0.0        0.0       1.0000
  TERMINAL TOTAL  .    66.0 +j     38.0       76.2       0.8666

ELEMENT = "Load.670C"
670           3     117.0 +j   68.0      135.3       0.8646
670           0       0.0 +j    0.0        0.0       1.0000
  TERMINAL TOTAL  .   117.0 +j     68.0      135.3       0.8646

ELEMENT = "Load.CAP1"
675           1       0.0 +j    0.0        0.0       1.0000
675           2       0.0 +j    0.0        0.0       1.0000
675           3       0.0 +j    0.0        0.0       1.0000
675           0       0.0 +j    0.0        0.0       1.0000
  TERMINAL TOTAL  .     0.0 +j      0.0        0.0       1.0000

ELEMENT = "Load.CAP2"
611           3      -0.0 +j  -96.0       96.0       0.0000
611           0       0.0 +j    0.0        0.0       1.0000
  TERMINAL TOTAL  .    -0.0 +j    -96.0       96.0       0.0000


Total Circuit Losses =  128.0 +j  321.6
