test/data/IEEE13NodecktAssets_VLN_Node.Txt

LINE-GROUND and LINE-LINE VOLTAGES BY BUS & NODE

Bus       Node    VLN (kV)   Angle      pu     Base kV    Node-Node   VLL (kV)  Angle      pu

SOURCEBUS 1       66.395 /_   30.0         1   115.000        1-2        115 /_   60.0         1
   -      2       66.395 /_  -90.0         1   115.000        2-3        115 /_  -60.0         1
   -      3       66.395 /_  150.0         1   115.000        3-1        115 /_  180.0         1
650 ..... 1       2.4017 /_    0.0   0.99995     4.160        1-2     4.1598 /_   30.0   0.99995
   -      2       2.4017 /_ -120.0   0.99997     4.160        2-3     4.1598 /_  -90.0   0.99996
   -      3       2.4017 /_  120.0   0.99995     4.160        3-1     4.1598 /_  150.0   0.99995
633 ..... 1       2.4334 /_   -2.1    1.0132     4.160        1-2     4.2264 /_   28.7     1.016
   -      2       2.4723 /_ -121.0    1.0293     4.160        2-3     4.2763 /_  -91.6     1.028
   -      3       2.4469 /_  118.2    1.0188     4.160        3-1     4.2321 /_  148.0    1.0173
634 ..... 1      0.27402 /_   -2.7    0.9888     0.480        1-2    0.47681 /_   28.2   0.99336
   -      2      0.28004 /_ -121.5    1.0105     0.480        2-3    0.48432 /_  -92.1     1.009
   -      3      0.27706 /_  117.7   0.99974     0.480        3-1    0.47838 /_  147.3   0.99663
RG60 .... 1       2.5514 /_    0.0    1.0623     4.160        1-2     4.3933 /_   29.8    1.0561
   -      2       2.5215 /_ -120.0    1.0499     4.160        2-3     4.4064 /_  -89.7    1.0592
   -      3       2.5664 /_  120.0    1.0686     4.160        3-1     4.4322 /_  149.9    1.0654
671 ..... 1       2.3521 /_   -4.3   0.97931     4.160        1-2     4.1136 /_   28.1   0.98884
   -      2       2.4739 /_ -121.2      1.03     4.160        2-3     4.2263 /_  -93.0    1.0159
   -      3        2.359 /_  116.8    0.9822     4.160        3-1      4.103 /_  146.2   0.98631
645 ..... 2       2.4552 /_ -121.1    1.0222     4.160        2-3     4.2588 /_  -91.5    1.0238
   -      3       2.4478 /_  118.3    1.0192     4.160
646 ..... 2        2.451 /_ -121.2    1.0205     4.160        2-3     4.2484 /_  -91.5    1.0212
   -      3       2.4428 /_  118.3    1.0171     4.160
692 ..... 1       2.3521 /_   -4.3   0.97931     4.160        1-2     4.1136 /_   28.1   0.98884
   -      2       2.4739 /_ -121.2      1.03     4.160        2-3     4.2263 /_  -93.0    1.0159
   -      3        2.359 /_  116.8    0.9822     4.160        3-1      4.103 /_  146.2   0.98631
675 ..... 1       2.3348 /_   -4.5   0.97211     4.160        1-2        4.1 /_   28.2   0.98558
   -      2       2.4768 /_ -121.3    1.0312     4.160        2-3     4.2183 /_  -93.0     1.014
   -      3       2.3512 /_  116.9   0.97896     4.160        3-1     4.0862 /_  146.1   0.98226
611 ..... 3       2.3494 /_  116.6    0.9782     4.160
652 ..... 1       2.3346 /_   -4.3   0.97201     4.160
670 ..... 1       2.4118 /_   -2.8    1.0042     4.160        1-2     4.1946 /_   28.5    1.0083
   -      2       2.4737 /_ -121.1    1.0299     4.160        2-3     4.2627 /_  -92.1    1.0247
   -      3       2.4184 /_  117.7    1.0069     4.160        3-1     4.1927 /_  147.4    1.0079
632 ..... 1        2.441 /_   -2.0    1.0163     4.160        1-2     4.2368 /_   28.7    1.0185
   -      2       2.4763 /_ -121.0     1.031     4.160        2-3     4.2846 /_  -91.6      1.03
   -      3        2.452 /_  118.2    1.0209     4.160        3-1     4.2425 /_  148.0    1.0198
680 ..... 1       2.3521 /_   -4.3   0.97931     4.160        1-2     4.1136 /_   28.1   0.98884
   -      2       2.4739 /_ -121.2      1.03     4.160        2-3     4.2263 /_  -93.0    1.0159
   -      3        2.359 /_  116.8    0.9822     4.160        3-1      4.103 /_  146.2   0.98631
684 ..... 1       2.3477 /_   -4.3    0.9775     4.160
   -      3       2.3542 /_  116.7   0.98019     4.160        3-1     4.0935 /_  146.2   0.98402
